ipss.test.plugin.core/testData/adpter/psse/v33/aeso/2013_FLP.raw
0,   100.00, 33, 0, 1, 60.00     / PSS(R)E-33.4    THU, JUN 27 2013   0:32
TASMO MODEL; OUTPUT GENERATED 2012-09-17 18:00:07
SWINGBUS 1520 FOR 2012LPBL-1:2013-09-01:1:803--1-0-0-0
     1,'JUDY515S    ',  69.0000,1,  26,  99,  17,1.03657, -18.8821,1.10000,0.90000,1.10000,0.90000
     2,'MAYERTH     ', 138.0000,1,  40,  99,  17,1.01974, -16.4867,1.10000,0.90000,1.10000,0.90000
     3,'COLINTO7    ', 138.0000,1,  27,  99,  17,1.00074, -20.6056,1.10000,0.90000,1.10000,0.90000
     4,'WESTLOC7    ', 138.0000,1,  27,  99,  17,1.00551, -17.7569,1.10000,0.90000,1.10000,0.90000
     5,'CLYDE  7    ', 138.0000,1,  27,  99,  17,1.00129, -18.5208,1.10000,0.90000,1.10000,0.90000
     6,'DICKSOA9    ',   4.1600,1,  39,  99,   7,1.03449, -22.3984,1.10000,0.90000,1.10000,0.90000
     7,'BOYLE  7    ', 138.0000,1,  27,  99,  17,1.00968, -21.2022,1.10000,0.90000,1.10000,0.90000
     8,'WHI 3647    ', 138.0000,1,  26,  99,  17,1.03043, -16.6580,1.10000,0.90000,1.10000,0.90000
     9,'WHITECO7    ', 138.0000,1,  26,  99,  17,1.03068, -16.8985,1.10000,0.90000,1.10000,0.90000
    10,'WHITECO8    ',  69.0000,1,  26,  99,  17,1.04935, -16.3642,1.10000,0.90000,1.10000,0.90000
    12,'FOX CREE    ', 138.0000,1,  24,  99,  17,1.03012, -18.4861,1.10000,0.90000,1.10000,0.90000
    13,'KAYBOB 7    ', 138.0000,1,  24,  99,  17,1.01434, -18.2613,1.10000,0.90000,1.10000,0.90000
    14,'WESGEN 9    ',  13.8000,2,  27,  99,   4,1.02500, -14.5263,1.10000,0.90000,1.10000,0.90000
    15,'MTN COA7    ', 138.0000,1,  29,  99,  17,1.00237, -16.6521,1.10000,0.90000,1.10000,0.90000
    16,'FLATBUS7    ', 138.0000,1,  27,  99,  17,1.01290, -17.3318,1.10000,0.90000,1.10000,0.90000
    17,'COLD CR7    ', 138.0000,1,  29,  99,  17,0.99765, -16.9353,1.10000,0.90000,1.10000,0.90000
    18,'GULF RO7    ', 138.0000,1,  29,  99,  17,1.01380, -16.1923,1.10000,0.90000,1.10000,0.90000
    19,'WESGEN T    ', 138.0000,1,  27,  99,  17,1.01478, -17.2101,1.10000,0.90000,1.10000,0.90000
    20,'EDSON  7    ', 138.0000,1,  29,  99,  17,1.02374, -15.8389,1.10000,0.90000,1.10000,0.90000
    21,'WESGEN 7    ', 138.0000,1,  27,  99,   4,1.01805, -16.9209,1.10000,0.90000,1.10000,0.90000
    26,'ENTWIST7    ', 138.0000,1,  40,  99,  17,1.01195, -16.0315,1.10000,0.90000,1.10000,0.90000
    27,'WABAMUN8    ',  69.0000,1,  40,  99,  17,1.02647, -13.9029,1.10000,0.90000,1.10000,0.90000
    31,'FINCAST7    ', 138.0000,1,  52,  99,  17,1.00659, -16.4788,1.10000,0.90000,1.10000,0.90000
    32,'ONOWAY 8    ',  69.0000,1,  40,  99,  17,1.02706, -13.9319,1.10000,0.90000,1.10000,0.90000
    33,'BRAZEAA9    ',  13.2000,2,  30,  99,  17,1.02093, -17.7570,1.10000,0.90000,1.10000,0.90000
    35,'LODGEPO7    ', 138.0000,1,  30,  99,  17,1.00447, -17.3972,1.10000,0.90000,1.10000,0.90000
    36,'BRAZEAU7    ', 138.0000,1,  30,  99,  17,1.02561, -16.9952,1.10000,0.90000,1.10000,0.90000
    37,'HRT EXP7    ', 138.0000,1,  32,  99,  25,1.02185, -10.8656,1.10000,0.90000,1.10000,0.90000
    38,'BRAZ OUT    ', 138.0000,1,  30,  99,  17,1.02204, -17.6505,1.10000,0.90000,1.10000,0.90000
    39,'CYNTHIA7    ', 138.0000,1,  30,  99,  17,1.00947, -18.3281,1.10000,0.90000,1.10000,0.90000
    40,'N CALDE7    ', 138.0000,1,  60,  99,  17,1.00321, -17.7515,1.10000,0.90000,1.10000,0.90000
    41,'N BARRH7    ', 138.0000,1,  40,  99,  17,1.01968, -15.8824,1.10000,0.90000,1.10000,0.90000
    42,'AMOCO BR    ', 138.0000,1,  30,  99,  17,1.01795, -18.7795,1.10000,0.90000,1.10000,0.90000
    43,'SCOTF_4     ', 138.0000,2,  33,  99,  29,1.03000, -16.9472,1.10000,0.90000,1.10000,0.90000
    44,'FT ASBN7    ', 138.0000,1,  40,  99,  17,1.02458, -17.1926,1.10000,0.90000,1.10000,0.90000
    47,'SHERWOO7    ', 138.0000,1,  60,  99,  17,1.01524, -17.7560,1.10000,0.90000,1.10000,0.90000
    48,'DIAM SH7    ', 138.0000,1,  33,  99,  17,1.03093, -16.9091,1.10000,0.90000,1.10000,0.90000
    49,'KEYSTON7    ', 138.0000,1,  30,  99,  17,1.01316, -12.5598,1.10000,0.90000,1.10000,0.90000
    50,'RIVERSID    ', 138.0000,2,  33,  99, 211,1.02771, -17.0488,1.10000,0.90000,1.10000,0.90000
    51,'W PEMBI7    ', 138.0000,1,  30,  99,  17,1.01347, -18.8234,1.10000,0.90000,1.10000,0.90000
    52,'BLUERIDG    ', 138.0000,1,  26,  99,  17,1.02410, -16.8184,1.10000,0.90000,1.10000,0.90000
    53,'SANDYPT7    ', 138.0000,1,  48,  99,  17,1.02687, -11.2806,1.10000,0.90000,1.10000,0.90000
    55,'GULF OI7    ', 138.0000,1,  60,  99,  17,1.02075, -17.5877,1.10000,0.90000,1.10000,0.90000
    56,'IPPL ED7    ', 138.0000,1,  60,  99,  17,1.02170, -17.5490,1.10000,0.90000,1.10000,0.90000
    57,'LAMOURE4    ', 240.0000,1,  33,  99,  17,1.02560, -15.7561,1.10000,0.90000,1.10000,0.90000
    58,'FORT SA7    ', 138.0000,1,  60,  99,  17,1.02643, -17.0107,1.10000,0.90000,1.10000,0.90000
    59,'REDWATE7    ', 138.0000,1,  33,  99,  17,1.01597, -17.4849,1.10000,0.90000,1.10000,0.90000
    60,'BEAMER 7    ', 138.0000,1,  33,  99,  17,1.02447, -17.1860,1.10000,0.90000,1.10000,0.90000
    61,'UN CARB9    ', 138.0000,2,  33,  99, 191,1.03000, -16.7837,1.10000,0.90000,1.10000,0.90000
    62,'SHERRIT7    ', 138.0000,1,  33,  99,  17,1.02720, -16.9783,1.10000,0.90000,1.10000,0.90000
    63,'LAMOURE7    ', 138.0000,1,  33,  99,  17,1.03028, -16.8057,1.10000,0.90000,1.10000,0.90000
    64,'BANFF  7    ', 138.0000,1,  44,  99,  17,1.00122, -25.5787,1.10000,0.90000,1.10000,0.90000
    65,'BARDO  7    ', 138.0000,1,  31,  99,  17,0.98874, -18.4726,1.10000,0.90000,1.10000,0.90000
    66,'IOL 737L    ', 138.0000,1,  60,  99,  17,1.02022, -17.6190,1.10000,0.90000,1.10000,0.90000
    67,'BRUDERH7    ', 138.0000,1,  33,  99,  17,1.03077, -17.1402,1.10000,0.90000,1.10000,0.90000
    68,'N HOLDE7    ', 138.0000,1,  56,  99,  17,0.99432, -16.7336,1.10000,0.90000,1.10000,0.90000
    69,'IOL 738L    ', 138.0000,1,  60,  99,  17,1.01554, -17.9142,1.10000,0.90000,1.10000,0.90000
    70,'CAMROSE7    ', 138.0000,1,  31,  99,  17,0.97616, -19.8358,1.10000,0.90000,1.10000,0.90000
    71,'JARROW 8    ',  69.0000,1,  32,  99,  17,1.02254, -12.4556,1.10000,0.90000,1.10000,0.90000
    72,'JARROW 7    ', 138.0000,1,  32,  99,  17,1.00502, -12.4232,1.10000,0.90000,1.10000,0.90000
    73,'HARDIST7    ', 138.0000,1,  32,  99,  17,1.02203, -10.8250,1.10000,0.90000,1.10000,0.90000
    74,'METIS647    ', 138.0000,1,  37,  99,  17,1.02751, -12.2111,1.10000,0.90000,1.10000,0.90000
    75,'HUGHEND7    ', 138.0000,1,  37,  99,  17,1.01929, -11.7961,1.10000,0.90000,1.10000,0.90000
    76,'IPPL ST7    ', 138.0000,1,  56,  99,  17,1.02384, -11.3505,1.10000,0.90000,1.10000,0.90000
    77,'WAINWRI8    ',  69.0000,1,  32,  99,  17,1.02350, -12.5708,1.10000,0.90000,1.10000,0.90000
    78,'SEDGEWI7    ', 138.0000,1,  32,  99,  17,1.02742,  -8.8650,1.10000,0.90000,1.10000,0.90000
    79,'BUFFALO7    ', 138.0000,1,  32,  99,  17,0.99051, -16.3358,1.10000,0.90000,1.10000,0.90000
    80,'BUCKLAK7    ', 138.0000,1,  30,  99,  17,0.99458, -16.0230,1.10000,0.90000,1.10000,0.90000
    81,'BIGSTON4    ', 240.0000,1,  31,  99,  17,0.99740, -14.9366,1.10000,0.90000,1.10000,0.90000
    82,'CHEVRON7    ', 138.0000,1,  24,  99,  17,1.01406, -18.2712,1.10000,0.90000,1.10000,0.90000
    83,'RBCUPIL7    ', 138.0000,1,  17,  99,  21,1.08687, -14.7871,1.10000,0.90000,1.10000,0.90000
    85,'MILLAR 7    ', 138.0000,1,  26,  99,  17,1.01297, -17.2359,1.10000,0.90000,1.10000,0.90000
    86,'PROVOST7    ', 138.0000,1,  37,  99,  17,1.01570, -12.6704,1.10000,0.90000,1.10000,0.90000
    87,'METIS644    ', 240.0000,1,  37,  99,  17,1.05995, -10.2438,1.10000,0.90000,1.10000,0.90000
    88,'BICKERD7    ', 138.0000,1,  29,  99,  17,1.02627, -15.1449,1.10000,0.90000,1.10000,0.90000
    89,'E EDMON7    ', 138.0000,1,  60,  99,  17,1.02249, -17.5074,1.10000,0.90000,1.10000,0.90000
    90,'BICKERD4    ', 240.0000,1,  29,  99,  17,1.08019, -13.2157,1.10000,0.90000,1.10000,0.90000
    91,'NISKU  7    ', 138.0000,1,  60,  99,  17,0.98423, -20.5309,1.10000,0.90000,1.10000,0.90000
    93,'WETASKI7    ', 138.0000,1,  31,  99,  17,1.00607, -19.7640,1.10000,0.90000,1.10000,0.90000
    94,'ERVICK 7    ', 138.0000,1,  31,  99,  17,0.98022, -19.9794,1.10000,0.90000,1.10000,0.90000
    95,'PONOKA 7    ', 138.0000,1,  31,  99,  17,0.99046, -20.4414,1.10000,0.90000,1.10000,0.90000
    96,'DEVON  7    ', 138.0000,1,  60,  99,  17,0.97090, -20.6892,1.10000,0.90000,1.10000,0.90000
    97,'ECKVILL7    ', 138.0000,1,  35,  99,  17,1.00827, -17.8601,1.10000,0.90000,1.10000,0.90000
    98,'RIMBEY 7    ', 138.0000,1,  35,  99,  17,0.99554, -18.4574,1.10000,0.90000,1.10000,0.90000
    99,'BENALTO7    ', 138.0000,1,  35,  99,  17,1.01777, -17.4301,1.10000,0.90000,1.10000,0.90000
   100,'ROCKY M7    ', 138.0000,1,  38,  99,  17,0.98478, -19.2948,1.10000,0.90000,1.10000,0.90000
   101,'COOKING7    ', 138.0000,1,  60,  99,  17,0.99550, -18.4143,1.10000,0.90000,1.10000,0.90000
   102,'BIGHORN1    ',  13.8000,2,  34,  99,  17,0.97558, -13.9202,1.10000,0.90000,1.10000,0.90000
   103,'BIG HOR7    ', 138.0000,1,  34,  99,  17,0.99510, -13.9202,1.10000,0.90000,1.10000,0.90000
   104,'STRACHA7    ', 138.0000,1,  38,  99,  17,0.98892, -19.3394,1.10000,0.90000,1.10000,0.90000
   105,'PIGEON 7    ', 138.0000,1,  31,  99,  17,0.99545, -20.1480,1.10000,0.90000,1.10000,0.90000
   106,'DEERLAN7    ', 138.0000,1,  33,  99,  17,1.02511, -16.8993,1.10000,0.90000,1.10000,0.90000
   107,'SUNDRE 7    ', 138.0000,1,  38,  99,  17,0.95909, -22.2662,1.10000,0.90000,1.10000,0.90000
   108,'BIGHORN2    ',  13.8000,2,  34,  99,  17,0.97200,  -6.4405,1.10000,0.90000,1.10000,0.90000
   109,'DEERLAN4    ', 240.0000,1,  33,  99,  17,1.04029, -15.9861,1.10000,0.90000,1.10000,0.90000
   110,'IPL EDM7    ', 138.0000,1,  60,  99,  17,1.02169, -17.5496,1.10000,0.90000,1.10000,0.90000
   111,'SANDHIL7    ', 138.0000,1,  48,  99,  17,1.02687, -11.2948,1.10000,0.90000,1.10000,0.90000
   112,'SUNKEN7     ', 138.0000,1,  37,  99,  17,1.02737, -12.2095,1.10000,0.90000,1.10000,0.90000
   113,'BLACKFA7    ', 138.0000,1,  35,  99,  17,1.00349, -19.6865,1.10000,0.90000,1.10000,0.90000
   114,'LACOMBE7    ', 138.0000,1,  35,  99,  17,0.99479, -20.1440,1.10000,0.90000,1.10000,0.90000
   115,'S RED DE    ', 138.0000,1,  35,  99,  17,1.01624, -18.8777,1.10000,0.90000,1.10000,0.90000
   116,'W LACOMB    ', 138.0000,1,  35,  99,  17,0.99767, -20.0352,1.10000,0.90000,1.10000,0.90000
   117,'RED DE A    ', 138.0000,1,  35,  99,  17,1.01805, -18.6466,1.10000,0.90000,1.10000,0.90000
   118,'RED DE B    ', 138.0000,1,  35,  99,  17,1.01805, -18.6466,1.10000,0.90000,1.10000,0.90000
   119,'N RED D7    ', 138.0000,1,  35,  99,  17,1.01787, -18.9714,1.10000,0.90000,1.10000,0.90000
   120,'INNISFA7    ', 138.0000,1,  39,  99,  17,0.99323, -20.7671,1.10000,0.90000,1.10000,0.90000
   121,'OLDS   7    ', 138.0000,1,  39,  99,  17,0.97068, -22.8549,1.10000,0.90000,1.10000,0.90000
   122,'MADDEN 7    ', 138.0000,1,  39,  99,  17,0.97130, -24.3502,1.10000,0.90000,1.10000,0.90000
   123,'DIDSBURY    ', 138.0000,1,  39,  99,  17,0.97139, -23.3997,1.10000,0.90000,1.10000,0.90000
   124,'HARMATT7    ', 138.0000,1,  39,  99,  17,0.96829, -23.2586,1.10000,0.90000,1.10000,0.90000
   125,'YASAA7      ', 138.0000,1,  60,  99,  17,1.02122, -17.5644,1.10000,0.90000,1.10000,0.90000
   126,'SHELL H7    ', 138.0000,1,  39,  99,  17,0.96924, -23.3773,1.10000,0.90000,1.10000,0.90000
   127,'BEDDING2    ', 138.0000,1,   6,  99,   3,1.02289, -22.7166,1.10000,0.90000,1.10000,0.90000
   128,'ELLERSLI    ', 240.0000,1,  60,  99,  17,1.01956, -12.2959,1.10000,0.90000,1.10000,0.90000
   129,'SUND#1GN    ',  18.0000,2,  40,  99,  17,1.00550,  -3.4966,1.10000,0.90000,1.10000,0.90000
   130,'SUND#3GN    ',  20.0000,2,  40,  99,  17,1.03000,  -2.1003,1.10000,0.90000,1.10000,0.90000
   131,'SUNDANA8    ',  69.0000,1,  40,  99,  17,1.02304, -11.8406,1.10000,0.90000,1.10000,0.90000
   132,'SUNDANC7    ', 138.0000,1,  40,  99,  17,1.03725,  -9.5064,1.10000,0.90000,1.10000,0.90000
   133,'WABAMUN4    ', 240.0000,1,  40,  99,  17,1.06375, -11.2800,1.10000,0.90000,1.10000,0.90000
   134,'WABAMUN7    ', 138.0000,1,  40,  99,  17,1.03052, -14.4256,1.10000,0.90000,1.10000,0.90000
   135,'SUNDANC4    ', 240.0000,1,  40,  99,  17,1.08431,  -9.3350,1.10000,0.90000,1.10000,0.90000
   136,'E EDMON4    ', 240.0000,1,  60,  99,  17,1.01089, -13.4010,1.10000,0.90000,1.10000,0.90000
   137,'N CALDE4    ', 240.0000,1,  60,  99,  17,1.02627, -14.9601,1.10000,0.90000,1.10000,0.90000
   138,'N BARRH4    ', 240.0000,1,  40,  99,  17,1.09306, -13.6553,1.10000,0.90000,1.10000,0.90000
   141,'DALEHUR7    ', 138.0000,1,  29,  99,  17,1.00344, -16.5843,1.10000,0.90000,1.10000,0.90000
   142,'KINGMAN7    ', 138.0000,1,  31,  99,  17,0.98385, -18.9759,1.10000,0.90000,1.10000,0.90000
   144,'ALGAR  7    ', 138.0000,1,  61,  99,   1,1.05305, -12.9890,1.10000,0.90000,1.10000,0.90000
   147,'GAETZ  4    ', 240.0000,1,  35,  99,  17,1.01265, -16.5523,1.10000,0.90000,1.10000,0.90000
   148,'GAETZ  7    ', 138.0000,1,  35,  99,  17,1.02466, -18.6399,1.10000,0.90000,1.10000,0.90000
   150,'WILLESD4    ', 240.0000,1,  30,  99,  17,1.04579, -15.3947,1.10000,0.90000,1.10000,0.90000
   151,'BRAZ#1 9    ',  13.8000,2,  30,  99,  17,0.98000, -12.9807,1.10000,0.90000,1.10000,0.90000
   152,'RED DEE4    ', 240.0000,1,  35,  99,  17,1.02907, -16.2333,1.10000,0.90000,1.10000,0.90000
   153,'BRAZEAU4    ', 240.0000,1,  30,  99,  17,1.04071, -15.3848,1.10000,0.90000,1.10000,0.90000
   154,'BRAZ#2 9    ',  13.8000,2,  30,  99,  17,0.97119, -15.3848,1.10000,0.90000,1.10000,0.90000
   155,'BENALTO4    ', 240.0000,1,  35,  99,  17,1.05246, -15.1053,1.10000,0.90000,1.10000,0.90000
   156,'E CROSS4    ', 240.0000,1,  57,  99,  17,1.03896, -18.7885,1.10000,0.90000,1.10000,0.90000
   157,'COCHIN 8    ',  69.0000,1,  32,  99, 241,1.02337, -12.5743,1.10000,0.90000,1.10000,0.90000
   158,'LANGDON2    ', 500.0000,1,   6,  99,  17,1.05371, -15.4458,1.10000,0.90000,1.10000,0.90000
   159,'LANGDON4    ', 240.0000,1,   6,  99,  17,1.05400, -17.4383,1.10000,0.90000,1.10000,0.90000
   160,'JANET  4    ', 240.0000,1,   6,  99,  17,1.04611, -19.6923,1.10000,0.90000,1.10000,0.90000
   161,'SARCEE 4    ', 240.0000,1,   6,  99,  17,1.03133, -21.6859,1.10000,0.90000,1.10000,0.90000
   162,'E CALGAR    ', 240.0000,1,   6,  99,  17,1.03442, -21.1221,1.10000,0.90000,1.10000,0.90000
   163,'SAGITAW4    ', 240.0000,1,  26,  99,  17,1.06640, -14.8037,1.10000,0.90000,1.10000,0.90000
   164,'SAGITAW7    ', 138.0000,1,  26,  99,  17,1.03238, -16.3806,1.10000,0.90000,1.10000,0.90000
   165,'PEIGAN 4    ', 240.0000,1,  53,  99, 191,1.02610, -12.4878,1.10000,0.90000,1.10000,0.90000
   166,'PEIGAN 7    ', 138.0000,1,  53,  99, 191,1.01570,  -9.6411,1.10000,0.90000,1.10000,0.90000
   167,'N LETHB4    ', 240.0000,1,  54,  99,  17,1.02960, -13.1975,1.10000,0.90000,1.10000,0.90000
   168,'SUNSHIN8    ',  69.0000,1,  44,  99,  17,0.98088, -34.7774,1.10000,0.90000,1.10000,0.90000
   169,'CAN CEM7    ', 138.0000,1,  44,  99,  17,1.00897, -25.0499,1.10000,0.90000,1.10000,0.90000
   170,'COCHRAN7    ', 138.0000,1,  44,  99,  17,0.99407, -26.0007,1.10000,0.90000,1.10000,0.90000
   171,'SEEBE  7    ', 138.0000,1,  44,  99, 191,1.01079, -24.6462,1.10000,0.90000,1.10000,0.90000
   172,'HORS GEN    ',  12.0000,2,  44,  99,  17,1.02500, -23.0532,1.10000,0.90000,1.10000,0.90000
   173,'BRETV A7    ', 138.0000,1,  60,  99,  17,1.02074, -17.5866,1.10000,0.90000,1.10000,0.90000
   174,'SPRAY G1    ',  13.2000,2,  44,  99,  17,1.04663, -20.3092,1.10000,0.90000,1.10000,0.90000
   175,'CASCADE7    ', 138.0000,1,  44,  99, 194,1.00518, -25.3974,1.10000,0.90000,1.10000,0.90000
   176,'CASCADE9    ',  13.2000,2,  44,  99, 194,1.02159, -23.9391,1.10000,0.90000,1.10000,0.90000
   177,'AIRDRIE     ', 138.0000,1,  57,  99,  17,1.01220, -21.6063,1.10000,0.90000,1.10000,0.90000
   178,'BANFF  8    ',  69.0000,1,  44,  99,  17,0.98877, -34.4149,1.10000,0.90000,1.10000,0.90000
   179,'MARIANA7    ', 138.0000,1,  61,  99,   1,1.05715, -13.0360,1.10000,0.90000,1.10000,0.90000
   180,'GHOST  7    ', 138.0000,1,  44,  99,  17,1.00109, -25.1338,1.10000,0.90000,1.10000,0.90000
   181,'GHOST A9    ',  13.2000,2,  44,  99,  17,1.00000, -23.1116,1.10000,0.90000,1.10000,0.90000
   183,'BEARSPWB    ',  13.2000,2,  44,  99,  17,1.03555, -25.7308,1.10000,0.90000,1.10000,0.90000
   184,'BEARSPAW    ', 138.0000,1,  44,  99,  17,1.00198, -25.7785,1.10000,0.90000,1.10000,0.90000
   187,'BEDDING1    ', 240.0000,1,   6,  99,   3,1.03719, -19.8978,1.10000,0.90000,1.10000,0.90000
   188,'ANG COCA    ',  25.0000,1,  44,  99,  17,1.03622, -28.2180,1.10000,0.90000,1.10000,0.90000
   189,'ANG COCB    ',  13.8000,2,  44,  99,  17,1.00313, -28.5333,1.10000,0.90000,1.10000,0.90000
   190,'SPRAY G2    ',  13.2000,2,  44,  99,  17,1.01610, -24.7904,1.10000,0.90000,1.10000,0.90000
   191,'ANG COCH    ', 138.0000,1,  44,  99,  17,0.99261, -26.0051,1.10000,0.90000,1.10000,0.90000
   192,'NELSON L    ', 138.0000,1,  31,  99,  17,0.98586, -20.6500,1.10000,0.90000,1.10000,0.90000
   193,'KANANAS7    ', 138.0000,1,  44,  99,  17,1.01127, -24.6184,1.10000,0.90000,1.10000,0.90000
   194,'LAKE LO8    ',  69.0000,1,  44,  99,  17,0.92896, -35.6331,1.10000,0.90000,1.10000,0.90000
   195,'RUNDLE S    ', 138.0000,1,  44,  99,  17,1.01496, -24.8904,1.10000,0.90000,1.10000,0.90000
   196,'KANANAS9    ',  12.0000,2,  44,  99,  17,1.02529, -22.8378,1.10000,0.90000,1.10000,0.90000
   197,'RUNDLE G    ',  13.8000,2,  44,  99,  17,1.04761, -22.6535,1.10000,0.90000,1.10000,0.90000
   198,'BALZAC 7    ', 138.0000,1,   6,  99,  17,1.02256, -22.6421,1.10000,0.90000,1.10000,0.90000
   199,'SHELL J7    ', 138.0000,1,  44,  99,  17,1.00099, -25.2957,1.10000,0.90000,1.10000,0.90000
   201,'JUMPPND7    ', 138.0000,1,  44,  99,  17,1.00779, -24.9963,1.10000,0.90000,1.10000,0.90000
   202,'SARCEE 7    ', 138.0000,1,   6,  99,  17,1.01371, -24.9059,1.10000,0.90000,1.10000,0.90000
   203,'SARCEE C    ',  13.8000,1,   6,  99,  17,1.01255, -25.0099,1.10000,0.90000,1.10000,0.90000
   204,'MCMILLA4    ', 240.0000,1,  61,  99,   1,1.10023, -11.6583,1.10000,0.90000,1.10000,0.90000
   205,'AMOCO R7    ', 138.0000,1,  38,  99,  17,0.96342, -21.3996,1.10000,0.90000,1.10000,0.90000
   207,'JANET  7    ', 138.0000,1,   6,  99,  17,1.01645, -23.0483,1.10000,0.90000,1.10000,0.90000
   208,'ENMX2S 7    ', 138.0000,1,   6,  99,   3,1.00735, -25.0797,1.10000,0.90000,1.10000,0.90000
   209,'BRETONA1    ', 138.0000,1,  60,  99,  17,1.00950, -17.9764,1.10000,0.90000,1.10000,0.90000
   210,'SJPC_TP     ', 138.0000,1,  44,  99,  17,1.00120, -25.2869,1.10000,0.90000,1.10000,0.90000
   211,'MOUNT A7    ', 138.0000,1,  44,  99,  17,1.01390, -24.7989,1.10000,0.90000,1.10000,0.90000
   213,'HAIGRIVE    ', 138.0000,1,  17,  99,   1,1.09989, -17.8866,1.10000,0.90000,1.10000,0.90000
   214,'POCATEA9    ',  13.8000,2,  44,  99,  17,0.99185, -20.1802,1.10000,0.90000,1.10000,0.90000
   215,'TEX.W.P7    ', 138.0000,1,  30,  99,  17,1.00696, -18.1974,1.10000,0.90000,1.10000,0.90000
   216,'BARRIER7    ', 138.0000,1,  44,  99,  17,1.01279, -24.6898,1.10000,0.90000,1.10000,0.90000
   217,'SJP_CRK     ', 138.0000,1,  44,  99,  17,1.00115, -25.2887,1.10000,0.90000,1.10000,0.90000
   218,'BLACKMUD    ', 138.0000,1,  60,  99,  17,0.97744, -20.7217,1.10000,0.90000,1.10000,0.90000
   219,'KILLARN7    ', 138.0000,1,  37,  99,  17,0.99990, -16.3267,1.10000,0.90000,1.10000,0.90000
   220,'HAYTER 7    ', 138.0000,1,  37,  99,  17,0.98375, -16.9855,1.10000,0.90000,1.10000,0.90000
   221,'CRR-W1      ', 240.0000,1,  53,  99,  58,1.02062, -11.7970,1.10000,0.90000,1.10000,0.90000
   222,'BARRIER9    ',  13.2000,2,  44,  99,  17,1.03000, -22.8935,1.10000,0.90000,1.10000,0.90000
   223,'PINCHER8    ',  69.0000,1,  53,  99,  17,1.01987, -10.6807,1.10000,0.90000,1.10000,0.90000
   224,'PINCHER7    ', 138.0000,1,  53,  99,  17,1.02909, -10.4954,1.10000,0.90000,1.10000,0.90000
   225,'WARE JCT    ', 240.0000,1,  47,  99,  17,1.06913,  -8.5469,1.10000,0.90000,1.10000,0.90000
   226,'DRYWOOD8    ',  69.0000,1,  55,  99,  17,1.01279, -12.3594,1.10000,0.90000,1.10000,0.90000
...
0 / END OF BUS DATA, BEGIN LOAD DATA
    14,'99',1,  27,  99,     0.033,     0.017,     0.000,     0.000,     0.000,     0.000,   4,1,0
    33,'99',1,  30,  99,     0.446,     0.223,     0.000,     0.000,     0.000,     0.000,  17,1,0
    43,'37',1,  33,  37,   240.315,   120.158,     0.000,     0.000,     0.000,     0.000,  29,1,0
    43,'99',1,  33,  99,     5.089,     2.545,     0.000,     0.000,     0.000,     0.000,  29,1,0
    50,'37',1,  33,  37,    11.720,     5.860,     0.000,     0.000,     0.000,     0.000, 211,1,0
    50,'99',1,  33,  99,     9.602,     4.801,     0.000,     0.000,     0.000,     0.000, 211,1,0
    57,'99',1,  33,  99,     1.126,     0.563,     0.000,     0.000,     0.000,     0.000,  17,1,0
    61,'37',1,  33,  37,    32.037,    16.018,     0.000,     0.000,     0.000,     0.000, 191,1,0
    61,'99',1,  33,  99,    32.086,    16.043,     0.000,     0.000,     0.000,     0.000, 191,1,0
    79,'99',1,  32,  99,     0.000,     0.000,     0.000,     0.000,     0.000,     0.000,  17,1,0
    80,'99',1,  30,  99,     3.468,     1.734,     0.000,     0.000,     0.000,     0.000,  17,1,0
   127,'99',1,   6,  99,    13.010,     6.505,     0.000,     0.000,     0.000,     0.000,   3,1,0
   130,'36',1,  40,  36,    22.700,    11.300,     0.000,     0.000,     0.000,     0.000,  17,1,0
   165,'99',1,  53,  99,     0.000,     0.000,     0.000,     0.000,     0.000,     0.000, 191,1,0
   167,'99',1,  54,  99,     0.000,     0.000,     0.000,     0.000,     0.000,     0.000,  17,1,0
   176,'99',1,  44,  99,     0.036,     0.018,     0.000,     0.000,     0.000,     0.000, 194,1,0
   180,'99',1,  44,  99,     5.609,     2.805,     0.000,     0.000,     0.000,     0.000,  17,1,0
   188,'99',1,  44,  99,    10.896,     5.448,     0.000,     0.000,     0.000,     0.000,  17,1,0
   189,'99',1,  44,  99,     7.455,     3.728,     0.000,     0.000,     0.000,     0.000,  17,1,0
   197,'99',1,  44,  99,     0.002,     0.001,     0.000,     0.000,     0.000,     0.000,  17,1,0
   214,'99',1,  44,  99,     0.032,     0.016,     0.000,     0.000,     0.000,     0.000,  17,1,0
   222,'99',1,  44,  99,     0.042,     0.021,     0.000,     0.000,     0.000,     0.000,  17,1,0
   234,'99',1,  53,  99,     0.428,     0.214,     0.000,     0.000,     0.000,     0.000,  44,1,0
   239,'99',1,  46,  99,     8.594,     4.297,     0.000,     0.000,     0.000,     0.000,  17,1,0
   248,'37',1,  28,  37,    27.846,    13.923,     0.000,     0.000,     0.000,     0.000,  36,1,0
   255,'99',1,  53,  99,     0.093,     0.046,     0.000,     0.000,     0.000,     0.000,  17,1,0
   265,'99',1,  53,  99,     0.093,     0.046,     0.000,     0.000,     0.000,     0.000,  17,1,0
   268,'99',1,  48,  99,     2.941,     1.470,     0.000,     0.000,     0.000,     0.000,  17,1,0
   274,'99',1,  52,  99,    12.820,     6.410,     0.000,     0.000,     0.000,     0.000,  17,1,0
   287,'99',1,  48,  99,     4.201,     2.101,     0.000,     0.000,     0.000,     0.000,  17,1,0
   288,'99',1,  48,  99,     2.101,     1.050,     0.000,     0.000,     0.000,     0.000,  17,1,0
   289,'99',1,  48,  99,     2.731,     1.365,     0.000,     0.000,     0.000,     0.000,  17,1,0
   296,'99',1,  53,  99,     0.011,     0.006,     0.000,     0.000,     0.000,     0.000,  17,1,0
   305,'99',1,  27,  99,     8.900,     4.450,     0.000,     0.000,     0.000,     0.000,  17,1,0
   330,'99',1,  30,  99,    15.381,     7.690,     0.000,     0.000,     0.000,     0.000,  17,1,0
   342,'36',1,  40,  36,    26.000,    13.000,     0.000,     0.000,     0.000,     0.000,  17,1,0
   345,'36',1,  40,  36,    21.900,    11.000,     0.000,     0.000,     0.000,     0.000,  17,1,0
   346,'99',1,  53,  99,     0.004,     0.002,     0.000,     0.000,     0.000,     0.000,  17,1,0
   348,'99',1,  61,  99,     5.470,     2.735,     0.000,     0.000,     0.000,     0.000,  17,1,0
   350,'36',1,  40,  36,    22.200,    11.100,     0.000,     0.000,     0.000,     0.000,  17,1,0
   375,'99',1,  44,  99,     0.057,     0.029,     0.000,     0.000,     0.000,     0.000,  17,1,0
   380,'99',1,  44,  99,     0.439,     0.220,     0.000,     0.000,     0.000,     0.000,  17,1,0
   383,'37',1,  35,  37,    57.684,    28.842,     0.000,     0.000,     0.000,     0.000,  17,1,0
   383,'99',1,  35,  99,    79.435,    39.717,     0.000,     0.000,     0.000,     0.000,  17,1,0
   403,'36',1,  40,  36,    40.200,    20.100,     0.000,     0.000,     0.000,     0.000,  17,1,0
   405,'36',1,  61,  36,     3.000,     1.500,     0.000,     0.000,     0.000,     0.000, 251,1,0
   405,'37',1,  61,  37,    11.023,     5.512,     0.000,     0.000,     0.000,     0.000, 251,1,0
   407,'99',1,  54,  99,     0.039,     0.019,     0.000,     0.000,     0.000,     0.000,  17,1,0
   408,'99',1,  26,  99,     0.149,     0.074,     0.000,     0.000,     0.000,     0.000,  17,1,0
   414,'99',1,  55,  99,     0.052,     0.026,     0.000,     0.000,     0.000,     0.000,  17,1,0
   422,'36',1,  40,  36,    24.900,    12.400,     0.000,     0.000,     0.000,     0.000,  17,1,0
   424,'36',1,  40,  36,    24.500,    12.300,     0.000,     0.000,     0.000,     0.000,  17,1,0
   440,'99',1,  31,  99,     0.035,     0.018,     0.000,     0.000,     0.000,     0.000,  17,1,0
   478,'99',1,  44,  99,    24.573,    12.286,     0.000,     0.000,     0.000,     0.000,  17,1,0
   479,'99',1,  44,  99,     0.002,     0.001,     0.000,     0.000,     0.000,     0.000,  17,1,0
   490,'35',1,  40,  35,    45.633,     0.000,     0.000,     0.000,     0.000,     0.000,   5,1,0
   490,'36',1,  40,  36,    10.100,     5.000,     0.000,     0.000,     0.000,     0.000,   5,1,0
   491,'36',1,  40,  36,    15.800,     7.900,     0.000,     0.000,     0.000,     0.000,   5,1,0
   492,'36',1,  40,  36,    16.600,     8.300,     0.000,     0.000,     0.000,     0.000,   5,1,0
   666,'99',1,  58,  99,     0.418,     0.209,     0.000,     0.000,     0.000,     0.000,   1,1,0
   674,'99',1,  48,  99,     0.005,     0.002,     0.000,     0.000,     0.000,     0.000,  17,1,0
   680,'35',1,   4,  35,     8.724,     0.000,     0.000,     0.000,     0.000,     0.000,  17,1,0
   680,'37',1,   4,  37,   128.137,    64.069,     0.000,     0.000,     0.000,     0.000,  17,1,0
   910,'99',1,  29,  99,     0.687,     0.343,     0.000,     0.000,     0.000,     0.000,  17,1,0
  1029,'99',1,  17,  99,    11.721,     5.861,     0.000,     0.000,     0.000,     0.000,   1,1,0
  1031,'99',1,  17,  99,     6.550,     3.275,     0.000,     0.000,     0.000,     0.000,   1,1,0
  1032,'99',1,  17,  99,    16.203,     8.101,     0.000,     0.000,     0.000,     0.000,   1,1,0
  1050,'99',1,  19,  99,     4.025,     2.013,     0.000,     0.000,     0.000,     0.000,   1,1,0
  1089,'34',1,  19,  34,    27.000,    12.000,     0.000,     0.000,     0.000,     0.000,  33,1,0
  1101,'37',1,  20,  37,     6.197,     3.098,     0.000,     0.000,     0.000,     0.000,  30,1,0
  1146,'37',1,  20,  37,    14.250,     7.125,     0.000,     0.000,     0.000,     0.000,  39,1,0
  1148,'36',1,  22,  36,    15.100,     7.600,     0.000,     0.000,     0.000,     0.000,   1,1,0
  1167,'99',1,  23,  99,     0.023,     0.012,     0.000,     0.000,     0.000,     0.000,   1,1,0
  1168,'99',1,  23,  99,     0.031,     0.016,     0.000,     0.000,     0.000,     0.000,   1,1,0
  1171,'35',1,  23,  35,     6.966,     0.000,     0.000,     0.000,     0.000,     0.000,   1,1,0
  1171,'99',1,  23,  99,     0.376,     0.188,     0.000,     0.000,     0.000,     0.000,   1,1,0
  1173,'99',1,  23,  99,     0.376,     0.188,     0.000,     0.000,     0.000,     0.000,   1,1,0
  1200,'99',1,  59,  99,     0.177,     0.089,     0.000,     0.000,     0.000,     0.000,   1,1,0
  1205,'35',1,  59,  35,     3.103,     0.000,     0.000,     0.000,     0.000,     0.000,   9,1,0
  1205,'37',1,  59,  37,   404.980,   202.491,     0.000,     0.000,     0.000,     0.000,   9,1,0
  1208,'37',1,  59,  37,   390.558,   195.280,     0.000,     0.000,     0.000,     0.000,  10,1,0
  1231,'99',1,  21,  99,    14.480,     7.240,     0.000,     0.000,     0.000,     0.000,   1,1,0
  1232,'99',1,  21,  99,    14.480,     7.240,     0.000,     0.000,     0.000,     0.000,   1,1,0
  1236,'37',1,  59,  37,    30.323,    15.161,     0.000,     0.000,     0.000,     0.000,  40,1,0
  1236,'99',1,  59,  99,     0.418,     0.209,     0.000,     0.000,     0.000,     0.000,  40,1,0
  1241,'37',1,  61,  37,   115.069,    57.535,     0.000,     0.000,     0.000,     0.000,  99,1,0
  1251,'37',1,  58,  37,    72.500,    36.250,     0.000,     0.000,     0.000,     0.000, 261,1,0
  1262,'37',1,  58,  37,    27.370,    13.685,     0.000,     0.000,     0.000,     0.000, 261,1,0
  1274,'37',1,  58,  37,     9.828,     4.914,     0.000,     0.000,     0.000,     0.000,   1,1,0
  1289,'37',1,  59,  37,    79.942,    39.971,     0.000,     0.000,     0.000,     0.000, 481,1,0
  1301,'36',1,  28,  36,     2.600,     1.400,     0.000,     0.000,     0.000,     0.000,  63,1,0
  1301,'37',1,  28,  37,    41.254,    20.627,     0.000,     0.000,     0.000,     0.000,  63,1,0
  1301,'99',1,  28,  99,     4.750,     2.375,     0.000,     0.000,     0.000,     0.000,  63,1,0
  1302,'37',1,  28,  37,    85.457,    42.728,     0.000,     0.000,     0.000,     0.000,   1,1,0
  1344,'99',1,  28,  99,     6.980,     3.490,     0.000,     0.000,     0.000,     0.000,   1,1,0
  1350,'99',1,  56,  99,     2.425,     1.213,     0.000,     0.000,     0.000,     0.000,   1,1,0
  1383,'99',1,  13,  99,     0.007,     0.004,     0.000,     0.000,     0.000,     0.000,   1,1,0
  1471,'99',1,  42,  99,    11.831,     5.915,     0.000,     0.000,     0.000,     0.000,   1,1,0
  1473,'34',1,  48,  34,   -94.220,     0.000,     0.000,     0.000,     0.000,     0.000,   1,1,0
  1474,'99',1,  42,  99,    11.887,     5.944,     0.000,     0.000,     0.000,     0.000,   1,1,0
  1482,'36',1,  43,  36,    14.400,     7.200,     0.000,     0.000,     0.000,     0.000,   1,1,0
  1484,'99',1,  43,  99,     0.001,     0.000,     0.000,     0.000,     0.000,     0.000,   1,1,0
  1487,'36',1,  43,  36,    15.400,     7.700,     0.000,     0.000,     0.000,     0.000,   1,1,0
  1495,'36',1,  36,  36,     7.800,     3.900,     0.000,     0.000,     0.000,     0.000,   1,1,0
  1496,'36',1,  36,  36,     9.700,     4.900,     0.000,     0.000,     0.000,     0.000,   1,1,0
  1497,'36',1,  36,  36,    18.800,     9.400,     0.000,     0.000,     0.000,     0.000,   1,1,0
  1503,'34',1,  15,  34,    10.000,     3.300,     0.000,     0.000,     0.000,     0.000,   2,1,0
  1504,'34',1,  15,  34,    10.000,     3.300,     0.000,     0.000,     0.000,     0.000,   2,1,0
  1505,'34',1,  15,  34,    10.000,     3.300,     0.000,     0.000,     0.000,     0.000,   2,1,0
  1506,'34',1,  15,  34,    10.000,     3.300,     0.000,     0.000,     0.000,     0.000,   2,1,0
  1681,'99',1,  59,  99,    36.033,    18.017,     0.000,     0.000,     0.000,     0.000,  36,1,0
  1683,'99',1,  59,  99,     9.827,     4.914,     0.000,     0.000,     0.000,     0.000,  36,1,0
  1684,'99',1,  59,  99,    36.033,    18.017,     0.000,     0.000,     0.000,     0.000,  36,1,0
  2017,'99',1,  44,  99,     2.464,     1.232,     0.000,     0.000,     0.000,     0.000,  17,1,0
  2018,'99',1,  44,  99,     2.464,     1.232,     0.000,     0.000,     0.000,     0.000,  17,1,0
  2053,'99',1,  48,  99,     3.404,     1.702,     0.000,     0.000,     0.000,     0.000,  17,1,0
  2060,'99',1,  33,  99,    13.212,     6.606,     0.000,     0.000,     0.000,     0.000,  17,1,0
  2062,'99',1,  33,  99,     8.222,     4.111,     0.000,     0.000,     0.000,     0.000,  17,1,0
  2063,'99',1,  33,  99,     8.448,     4.224,     0.000,     0.000,     0.000,     0.000,  17,1,0
  2085,'99',1,  26,  99,    24.544,    12.272,     0.000,     0.000,     0.000,     0.000,  17,1,0
  2089,'99',1,  60,  99,    17.713,     8.857,     0.000,     0.000,     0.000,     0.000,  17,1,0
  2103,'99',1,  34,  99,     1.874,     0.937,     0.000,     0.000,     0.000,     0.000,  17,1,0
  2125,'99',1,  60,  99,     9.138,     4.569,     0.000,     0.000,     0.000,     0.000,  17,1,0
  2169,'99',1,  44,  99,     6.909,     3.454,     0.000,     0.000,     0.000,     0.000,  17,1,0
  2173,'99',1,  60,  99,     6.195,     3.097,     0.000,     0.000,     0.000,     0.000,  17,1,0
  2198,'99',1,   6,  99,    11.077,     5.539,     0.000,     0.000,     0.000,     0.000,  17,1,0
  2208,'99',1,   6,  99,    11.904,     5.952,     0.000,     0.000,     0.000,     0.000,   3,1,0
  2218,'99',1,  60,  99,    17.278,     8.639,     0.000,     0.000,     0.000,     0.000,  17,1,0
  2230,'35',1,  53,  35,     0.138,     0.000,     0.000,     0.000,     0.000,     0.000,   1,1,0
  2230,'99',1,  53,  99,     0.000,     0.000,     0.000,     0.000,     0.000,     0.000,   1,1,0
  2231,'99',1,  55,  99,     2.365,     1.183,     0.000,     0.000,     0.000,     0.000,  17,1,0
  2242,'99',1,  46,  99,    19.880,     9.940,     0.000,     0.000,     0.000,     0.000,  17,1,0
  2260,'99',1,  48,  99,    12.249,     6.125,     0.000,     0.000,     0.000,     0.000,  17,1,0
  2266,'99',1,  48,  99,     3.395,     1.698,     0.000,     0.000,     0.000,     0.000,  17,1,0
  2269,'99',1,  52,  99,     8.395,     4.198,     0.000,     0.000,     0.000,     0.000,  17,1,0
  2284,'99',1,   4,  99,     2.055,     1.028,     0.000,     0.000,     0.000,     0.000,  17,1,0
  2297,'99',1,  32,  99,    12.329,     6.165,     0.000,     0.000,     0.000,     0.000,  17,1,0
  2298,'99',1,  26,  99,    17.324,     8.662,     0.000,     0.000,     0.000,     0.000,  17,1,0
  2311,'99',1,  60,  99,    23.274,    11.637,     0.000,     0.000,     0.000,     0.000,  17,1,0
  2315,'99',1,  45,  99,     2.326,     1.163,     0.000,     0.000,     0.000,     0.000,  17,1,0
  2340,'99',1,  45,  99,     8.122,     4.061,     0.000,     0.000,     0.000,     0.000,  17,1,0
  2344,'99',1,  48,  99,     2.245,     1.123,     0.000,     0.000,     0.000,     0.000,  17,1,0
  2357,'99',1,  60,  99,    14.513,     7.256,     0.000,     0.000,     0.000,     0.000,  17,1,0
  2364,'99',1,  40,  99,    17.141,     8.571,     0.000,     0.000,     0.000,     0.000,  17,1,0
  2366,'99',1,  60,  99,    14.633,     7.317,     0.000,     0.000,     0.000,     0.000,  17,1,0
  2368,'99',1,  29,  99,     6.456,     3.228,     0.000,     0.000,     0.000,     0.000,  17,1,0
  2369,'99',1,  61,  99,    14.048,     7.024,     0.000,     0.000,     0.000,     0.000,  17,1,0
  2370,'99',1,  61,  99,    18.622,     9.311,     0.000,     0.000,     0.000,     0.000,  17,1,0
  2373,'99',1,  32,  99,     3.008,     1.504,     0.000,     0.000,     0.000,     0.000,  17,1,0
  2384,'99',1,  35,  99,    37.071,    18.536,     0.000,     0.000,     0.000,     0.000,  17,1,0
  2389,'99',1,  54,  99,     0.187,     0.093,     0.000,     0.000,     0.000,     0.000,  10,1,0
  2392,'37',1,  27,  37,    57.940,    28.970,     0.000,     0.000,     0.000,     0.000, 301,1,0
  2397,'99',1,  29,  99,    13.390,     6.695,     0.000,     0.000,     0.000,     0.000,  17,1,0
  2399,'99',1,  47,  99,    12.411,     6.205,     0.000,     0.000,     0.000,     0.000,  17,1,0
  2402,'99',1,  53,  99,     0.167,     0.083,     0.000,     0.000,     0.000,     0.000, 192,1,0
  2415,'99',1,  29,  99,     0.149,     0.075,     0.000,     0.000,     0.000,     0.000,  17,1,0
  2417,'99',1,  27,  99,    14.179,     7.089,     0.000,     0.000,     0.000,     0.000,  17,1,0
  2488,'99',1,  40,  99,    10.341,     5.170,     0.000,     0.000,     0.000,     0.000,  17,1,0
  2503,'99',1,  57,  99,     0.027,     0.013,     0.000,     0.000,     0.000,     0.000,   3,1,0
  2514,'99',1,  60,  99,     6.006,     3.003,     0.000,     0.000,     0.000,     0.000,   5,1,0
  2515,'99',1,  60,  99,    13.517,     6.759,     0.000,     0.000,     0.000,     0.000,  17,1,0
  2550,'99',1,   6,  99,    15.507,     7.753,     0.000,     0.000,     0.000,     0.000,   3,1,0
  2551,'99',1,   6,  99,    17.133,     8.567,     0.000,     0.000,     0.000,     0.000,   3,1,0
  2555,'99',1,   6,  99,    18.741,     9.371,     0.000,     0.000,     0.000,     0.000,   3,1,0
  2556,'99',1,   6,  99,     3.649,     1.824,     0.000,     0.000,     0.000,     0.000,   3,1,0
  2559,'99',1,   6,  99,     9.865,     4.933,     0.000,     0.000,     0.000,     0.000,   3,1,0
  2561,'99',1,   6,  99,    18.197,     9.099,     0.000,     0.000,     0.000,     0.000,   3,1,0
  2564,'99',1,   6,  99,     4.036,     2.018,     0.000,     0.000,     0.000,     0.000,   3,1,0
  2567,'99',1,   6,  99,    22.741,    11.370,     0.000,     0.000,     0.000,     0.000,   3,1,0
  2568,'99',1,   6,  99,     9.687,     4.843,     0.000,     0.000,     0.000,     0.000,   3,1,0
  2571,'99',1,   6,  99,     4.307,     2.154,     0.000,     0.000,     0.000,     0.000,   3,1,0
  2572,'99',1,   6,  99,    14.130,     7.065,     0.000,     0.000,     0.000,     0.000,   3,1,0
  2573,'99',1,   6,  99,     8.381,     4.190,     0.000,     0.000,     0.000,     0.000,   3,1,0
  2576,'99',1,   6,  99,    20.537,    10.269,     0.000,     0.000,     0.000,     0.000,   3,1,0
  2578,'99',1,   6,  99,     2.043,     1.021,     0.000,     0.000,     0.000,     0.000,   3,1,0
  2579,'99',1,   6,  99,    11.711,     5.856,     0.000,     0.000,     0.000,     0.000,   3,1,0
  2582,'99',1,   6,  99,     5.988,     2.994,     0.000,     0.000,     0.000,     0.000,   3,1,0
  2585,'99',1,   6,  99,    13.101,     6.550,     0.000,     0.000,     0.000,     0.000,   3,1,0
  2588,'99',1,   6,  99,    20.308,    10.154,     0.000,     0.000,     0.000,     0.000,   3,1,0
  2589,'99',1,   6,  99,    15.177,     7.589,     0.000,     0.000,     0.000,     0.000,   3,1,0
  2598,'99',1,   6,  99,    22.062,    11.031,     0.000,     0.000,     0.000,     0.000,   3,1,0
  2605,'99',1,  29,  99,     1.248,     0.624,     0.000,     0.000,     0.000,     0.000,  17,1,0
  2621,'99',1,  42,  99,     0.016,     0.008,     0.000,     0.000,     0.000,     0.000, 371,1,0
  2622,'99',1,  42,  99,     0.016,     0.008,     0.000,     0.000,     0.000,     0.000, 371,1,0
  2623,'99',1,  42,  99,     0.012,     0.006,     0.000,     0.000,     0.000,     0.000, 371,1,0
  2624,'99',1,  42,  99,     0.016,     0.008,     0.000,     0.000,     0.000,     0.000, 371,1,0
  2625,'99',1,  42,  99,     0.019,     0.010,     0.000,     0.000,     0.000,     0.000, 371,1,0
  2674,'99',1,  26,  99,     0.023,     0.012,     0.000,     0.000,     0.000,     0.000, 193,1,0
  2690,'99',1,  54,  99,    12.937,     6.468,     0.000,     0.000,     0.000,     0.000,  17,1,0
  2716,'99',1,  42,  99,     0.664,     0.332,     0.000,     0.000,     0.000,     0.000, 391,1,0
  2763,'99',1,  53,  99,     0.248,     0.124,     0.000,     0.000,     0.000,     0.000, 190,1,0
  2771,'99',1,  33,  99,     2.960,     1.480,     0.000,     0.000,     0.000,     0.000,  17,1,0
  2779,'99',1,  40,  99,     2.183,     1.091,     0.000,     0.000,     0.000,     0.000,  17,1,0
  2780,'99',1,  35,  99,     7.431,     3.716,     0.000,     0.000,     0.000,     0.000,  17,1,0
  2834,'99',1,  33,  99,    17.439,     8.720,     0.000,     0.000,     0.000,     0.000,  40,1,0
  2858,'99',1,  27,  99,     4.485,     2.243,     0.000,     0.000,     0.000,     0.000, 321,1,0
  2878,'99',1,  61,  99,     2.207,     1.103,     0.000,     0.000,     0.000,     0.000,  17,1,0
  2879,'99',1,  61,  99,     2.207,     1.103,     0.000,     0.000,     0.000,     0.000,  17,1,0
  2901,'99',1,  53,  99,     0.215,     0.108,     0.000,     0.000,     0.000,     0.000,  44,1,0
  2920,'99',1,  61,  99,     5.440,     2.720,     0.000,     0.000,     0.000,     0.000,  17,1,0
...
0 / END OF LOAD DATA, BEGIN FIXED SHUNT DATA
  1089,'1 ',0,     0.000,    36.000
0 / END OF FIXED SHUNT DATA, BEGIN GENERATOR DATA
    14,'1 ',    13.205,     1.856,     8.200,    -5.600,1.02500,     0,    21.000, 0.00000E+0, 1.30000E-1, 0.00000E+0, 0.00000E+0,1.00000,1,  100.0,    17.000,     6.000,   4,1.0000
    33,'1 ',     0.000,     0.000,     4.100,    -2.800,1.02200,     0,     9.300, 2.00000E-3, 2.10000E-1, 0.00000E+0, 0.00000E+0,1.00000,0,  100.0,     8.400,    -0.500,  17,1.0000
    33,'2 ',     0.000,     0.000,     4.100,    -2.800,1.02200,     0,     9.300, 2.00000E-3, 2.20000E-1, 0.00000E+0, 0.00000E+0,1.00000,0,  100.0,     8.400,    -0.500,  17,1.0000
    43,'1 ',    -0.070,     0.000,     0.000,     0.000,1.03000,     0,     4.000, 0.00000E+0, 2.50000E-1, 0.00000E+0, 0.00000E+0,1.00000,1,  100.0,     0.000,    -4.000,  29,1.0000
    43,'2 ',    -0.070,     0.000,     0.000,     0.000,1.03000,     0,     4.000, 0.00000E+0, 2.50000E-1, 0.00000E+0, 0.00000E+0,1.00000,1,  100.0,     0.000,    -4.000,  29,1.0000
    43,'3 ',    -0.070,     0.000,     0.000,     0.000,1.03000,     0,     4.000, 0.00000E+0, 2.50000E-1, 0.00000E+0, 0.00000E+0,1.00000,1,  100.0,     0.000,    -4.000,  29,1.0000
    43,'4 ',    -0.070,     0.000,     0.000,     0.000,1.03000,     0,     4.000, 0.00000E+0, 2.50000E-1, 0.00000E+0, 0.00000E+0,1.00000,1,  100.0,     0.000,    -4.000,  29,1.0000
    43,'G1',    96.000,    33.237,    41.900,   -28.400,1.03000,     0,    96.100, 1.66000E-3, 2.10000E-1, 0.00000E+0, 0.00000E+0,1.00000,1,  100.0,    96.000,     0.000,  29,1.0000
    43,'G2',    -0.140,    -4.100,    -4.100,    -4.100,1.03000,     0,     9.000, 0.00000E+0, 1.67000E-1, 0.00000E+0, 0.00000E+0,1.00000,1,  100.0,     0.000,    -9.000,  29,1.0000
    43,'GT',    99.400,    34.414,    48.100,   -32.700,1.03000,     0,   110.400, 4.00000E-3, 2.19000E-1, 0.00000E+0, 0.00000E+0,1.00000,1,  100.0,    99.400,    20.000,  29,1.0000
    43,'M1',    -0.210,     0.000,     0.000,     0.000,1.03000,     0,    12.800, 0.00000E+0, 3.20000E-1, 0.00000E+0, 0.00000E+0,1.00000,1,  100.0,     0.000,   -11.190,  29,1.0000
    43,'M2',    -0.210,     0.000,     0.000,     0.000,1.03000,     0,    12.800, 0.00000E+0, 3.20000E-1, 0.00000E+0, 0.00000E+0,1.00000,1,  100.0,     0.000,   -11.190,  29,1.0000
    43,'M3',    -0.210,     0.000,     0.000,     0.000,1.03000,     0,    12.800, 0.00000E+0, 3.20000E-1, 0.00000E+0, 0.00000E+0,1.00000,1,  100.0,     0.000,   -11.190,  29,1.0000
    43,'M4',    -0.210,     0.000,     0.000,     0.000,1.03000,     0,    12.800, 0.00000E+0, 3.20000E-1, 0.00000E+0, 0.00000E+0,1.00000,1,  100.0,     0.000,   -11.190,  29,1.0000
    43,'M5',    -0.210,     0.000,     0.000,     0.000,1.03000,     0,    12.800, 0.00000E+0, 3.20000E-1, 0.00000E+0, 0.00000E+0,1.00000,1,  100.0,     0.000,   -11.190,  29,1.0000
    43,'M6',    -0.421,     0.000,     0.000,     0.000,1.03000,     0,    25.600, 0.00000E+0, 2.33000E-1, 0.00000E+0, 0.00000E+0,1.00000,1,  100.0,     0.000,   -25.600,  29,1.0000
    43,'ST',    44.916,    15.551,    46.300,   -31.400,1.03000,     0,   106.300, 3.84000E-3, 1.80000E-1, 0.00000E+0, 0.00000E+0,1.00000,1,  100.0,    95.700,    10.000,  29,1.0000
    50,'1 ',    38.028,    31.000,    31.000,   -21.100,1.03000,     0,    71.200, 0.00000E+0, 1.81000E-1, 0.00000E+0, 0.00000E+0,1.00000,1,  100.0,    64.100,    20.000, 211,1.0000
    61,'G1',    99.500,    31.600,    48.200,   -32.700,1.03000,     0,   110.600, 0.00000E+0, 3.00000E-1, 0.00000E+0, 0.00000E+0,1.00000,1,  100.0,    99.500,     0.000, 191,1.0000
    61,'G2',    21.739,     6.904,    48.200,   -32.700,1.03000,     0,   110.600, 0.00000E+0, 3.00000E-1, 0.00000E+0, 0.00000E+0,1.00000,1,  100.0,    99.500,     0.000, 191,1.0000
    61,'GT',    80.000,    -4.094,    42.300,   -28.700,1.03000,     0,    97.000, 4.00000E-3, 2.00000E-1, 0.00000E+0, 0.00000E+0,1.00000,0,  100.0,    95.000,    17.000, 191,1.0000
    61,'M1',    -1.111,     0.000,     0.000,    -5.800,1.03000,     0,     9.900, 6.40000E-3, 1.98000E-1, 0.00000E+0, 0.00000E+0,1.00000,1,  100.0,     0.000,    -9.698, 191,1.0000
    61,'M2',    -1.388,     0.000,     0.000,     0.000,1.03000,     0,    12.500, 5.50000E-3, 2.50000E-1, 0.00000E+0, 0.00000E+0,1.00000,1,  100.0,     0.000,   -12.520, 191,1.0000
    61,'ST',    12.300,    -0.629,    23.800,   -15.000,1.03000,     0,    50.600, 5.00000E-3, 2.00000E-1, 0.00000E+0, 0.00000E+0,1.00000,0,  100.0,    45.500,    12.000, 191,1.0000
   102,'1 ',    22.600,     0.107,    28.600,   -19.400,0.97300,     0,    65.500, 1.95000E-3, 3.40000E-1, 0.00000E+0, 0.00000E+0,1.00000,0,  100.0,    60.000,     0.000,  17,1.0000
   108,'2 ',    56.726,    -0.059,    28.600,   -19.400,0.97200,     0,    65.500, 1.95000E-3, 3.40000E-1, 0.00000E+0, 0.00000E+0,1.00000,1,  100.0,    60.000,     0.000,  17,1.0000
   129,'1 ',   212.400,    10.000,    10.000,   -25.000,1.03000,     0,   333.000, 2.00000E-3, 1.90000E-1, 0.00000E+0, 0.00000E+0,1.00000,1,  100.0,   300.000,   154.000,  17,1.0000
   130,'3A',   316.831,    19.295,   188.900,  -128.200,1.03000,     0,   483.300, 5.10000E-3, 2.07000E-1, 0.00000E+0, 0.00000E+0,1.00000,1,  100.0,   395.000,   155.500,  17,1.0000
   151,'1 ',    47.969,    -2.136,    80.200,   -54.400,0.98000,     0,   184.000, 2.00000E-3, 2.42000E-1, 0.00000E+0, 0.00000E+0,1.00000,1,  100.0,   160.000,     0.000,  17,1.0000
   154,'2 ',   150.000,    47.902,    90.200,   -61.200,0.98000,     0,   207.000, 2.00000E-3, 3.30000E-1, 0.00000E+0, 0.00000E+0,1.00000,0,  100.0,   190.000,    -3.100,  17,1.0000
   172,'1 ',     5.600,     2.617,     2.700,    -1.800,1.02500,     0,     6.300, 2.00000E-3, 2.00000E-1, 0.00000E+0, 0.00000E+0,1.00000,1,  100.0,     5.600,     0.000,  17,1.0000
   172,'2 ',     1.739,     0.812,     1.600,    -1.100,1.02500,     0,     3.800, 2.00000E-3, 2.00000E-1, 0.00000E+0, 0.00000E+0,1.00000,1,  100.0,     3.400,     0.000,  17,1.0000
   172,'3 ',     1.800,     0.581,     1.600,    -1.100,1.02500,     0,     3.800, 2.00000E-3, 2.00000E-1, 0.00000E+0, 0.00000E+0,1.00000,0,  100.0,     3.400,     0.000,  17,1.0000
   172,'4 ',     2.900,     0.936,     2.700,    -1.800,1.02500,     0,     6.300, 2.00000E-3, 2.00000E-1, 0.00000E+0, 0.00000E+0,1.00000,0,  100.0,     5.600,     0.000,  17,1.0000
   174,'1 ',    36.200,    13.925,    31.600,   -18.000,1.04663,     0,    54.600, 2.00000E-3, 2.20000E-1, 0.00000E+0, 0.00000E+0,1.00000,1,  100.0,    50.000,     0.000,  17,1.0000
   176,'1 ',    11.623,     8.700,     8.700,    -5.900,1.04775,     0,    20.000, 1.00000E-3, 2.50000E-1, 0.00000E+0, 0.00000E+0,1.00000,1,  100.0,    18.000,    -0.500, 194,1.0000
   176,'2 ',     4.700,     9.162,     9.600,    -5.800,1.04775,     0,    20.000, 1.00000E-3, 3.30000E-1, 0.00000E+0, 0.00000E+0,1.00000,0,  100.0,    18.000,    -2.000, 194,1.0000
   181,'2 ',    16.200,     6.199,     7.800,    -5.300,1.00000,     0,    15.000, 2.00000E-3, 1.70000E-1, 0.00000E+0, 0.00000E+0,1.00000,1,  100.0,    16.200,     0.000,  17,1.0000
   181,'3 ',     6.386,     2.444,     8.700,    -5.900,1.00000,     0,    15.000, 2.00000E-3, 1.70000E-1, 0.00000E+0, 0.00000E+0,1.00000,1,  100.0,    18.000,     0.000,  17,1.0000
   181,'4A',    10.200,     4.660,    12.800,    -8.700,1.00000,     0,    31.100, 1.00000E-3, 3.70000E-1, 0.00000E+0, 0.00000E+0,1.00000,0,  100.0,    26.500,    -0.500,  17,1.0000
   183,'1 ',     4.752,    -5.300,     7.800,    -5.300,1.01500,     0,    18.000, 2.00000E-3, 2.10000E-1, 0.00000E+0, 0.00000E+0,1.00000,1,  100.0,    17.400,     0.000,  17,1.0000
   189,'1 ',    -4.997,     0.000,     0.000,     0.000,1.00000,     0,    15.000, 0.00000E+0, 2.50000E-1, 0.00000E+0, 0.00000E+0,1.00000,1,  100.0,     0.000,   -15.000,  17,1.0000
   189,'2 ',    -4.997,     0.000,     0.000,     0.000,1.00000,     0,    15.000, 0.00000E+0, 2.50000E-1, 0.00000E+0, 0.00000E+0,1.00000,1,  100.0,     0.000,   -15.000,  17,1.0000
   190,'2A',    16.400,    -8.318,    27.100,   -18.400,1.00000,     0,    62.200, 1.00000E-3, 3.20000E-1, 0.00000E+0, 0.00000E+0,1.00000,0,  100.0,    56.000,     0.000,  17,1.0000
   196,'1 ',     5.000,     1.900,     1.900,    -1.300,1.04786,     0,     4.300, 2.00000E-3, 2.00000E-1, 0.00000E+0, 0.00000E+0,1.00000,1,  100.0,     5.000,     0.000,  17,1.0000
   196,'2 ',     3.399,     1.900,     1.900,    -1.300,1.04786,     0,     4.300, 2.00000E-3, 2.00000E-1, 0.00000E+0, 0.00000E+0,1.00000,1,  100.0,     5.000,     0.000,  17,1.0000
   196,'3 ',     5.800,     4.900,     4.900,    -3.300,1.04786,     0,    11.300, 2.00000E-3, 3.00000E-1, 0.00000E+0, 0.00000E+0,1.00000,0,  100.0,    10.000,     0.000,  17,1.0000
   197,'2 ',    10.306,     7.957,    15.300,   -10.400,1.04761,     0,    35.000, 2.00000E-3, 2.00000E-1, 0.00000E+0, 0.00000E+0,1.00000,1,  100.0,    33.000,    -1.000,  17,1.0000
   214,'1 ',     7.789,     6.500,     6.500,    -4.400,1.03415,     0,    15.000, 2.00000E-3, 1.60000E-1, 0.00000E+0, 0.00000E+0,1.00000,1,  100.0,    14.100,     0.000,  17,1.0000
   222,'1 ',     4.145,     2.087,     4.900,    -3.300,1.03000,     0,    11.300, 2.00000E-3, 2.50000E-1, 0.00000E+0, 0.00000E+0,1.00000,1,  100.0,    11.000,     0.000,  17,1.0000
   248,'1 ',   100.800,    23.088,    48.800,   -33.100,1.04000,     0,   112.000, 0.00000E+0, 2.27100E-1, 0.00000E+0, 0.00000E+0,1.00000,1,  100.0,   100.800,    16.000,  36,1.0000
   248,'2 ',    78.500,    17.981,    48.800,   -33.100,1.04000,     0,   112.000, 0.00000E+0, 2.27100E-1, 0.00000E+0, 0.00000E+0,1.00000,1,  100.0,   100.800,    16.000,  36,1.0000
   255,'1 ',     1.200,     0.000,     0.000,     0.000,1.02560,     0,    14.000, 3.00000E-1, 2.30000E-1, 0.00000E+0, 0.00000E+0,1.00000,1,  100.0,    11.300,     0.000,  17,1.0000
   265,'1 ',     0.800,     0.000,     0.000,     0.000,1.02551,     0,    13.800, 3.00000E-1, 2.30000E-1, 0.00000E+0, 0.00000E+0,1.00000,1,  100.0,    10.100,     0.000,  17,1.0000
   268,'1 ',    -2.112,     0.000,     0.000,     0.000,1.00000,     0,    22.400, 0.00000E+0, 1.60000E-1, 0.00000E+0, 0.00000E+0,1.00000,1,  100.0,     0.000,   -22.400,  17,1.0000
   268,'E1',    -0.211,    -0.105,     0.000,     0.000,1.00000,     0,     2.600, 0.00000E+0, 1.60000E-1, 0.00000E+0, 0.00000E+0,1.00000,0,  100.0,     0.000,    -2.600,  17,1.0000
   268,'F1',    -0.634,     0.000,     0.000,     0.000,1.00000,     0,     8.200, 0.00000E+0, 1.60000E-1, 0.00000E+0, 0.00000E+0,1.00000,1,  100.0,     0.000,    -8.200,  17,1.0000
   268,'F2',    -0.634,     0.000,     0.000,     0.000,1.00000,     0,     8.200, 0.00000E+0, 1.60000E-1, 0.00000E+0, 0.00000E+0,1.00000,1,  100.0,     0.000,    -8.200,  17,1.0000
   287,'1 ',   -12.132,     0.000,     0.000,     0.000,1.01747,     0,    22.400, 0.00000E+0, 1.60000E-1, 0.00000E+0, 0.00000E+0,1.00000,1,  100.0,     0.000,   -22.400,  17,1.0000
   287,'E2',    -0.639,     0.000,     0.000,     0.000,1.01747,     0,     2.600, 0.00000E+0, 1.60000E-1, 0.00000E+0, 0.00000E+0,1.00000,1,  100.0,     0.000,    -2.600,  17,1.0000
   288,'1 ',    -2.112,     0.000,     0.000,     0.000,1.00723,     0,    22.400, 0.00000E+0, 1.60000E-1, 0.00000E+0, 0.00000E+0,1.00000,1,  100.0,     0.000,   -22.400,  17,1.0000
   289,'1 ',    -1.690,     0.000,     0.000,     0.000,1.00747,     0,    18.700, 0.00000E+0, 2.11000E-1, 0.00000E+0, 0.00000E+0,1.00000,1,  100.0,     0.000,   -18.700,  17,1.0000
   289,'2 ',    -1.690,     0.000,     0.000,     0.000,1.00747,     0,    18.700, 0.00000E+0, 2.11000E-1, 0.00000E+0, 0.00000E+0,1.00000,1,  100.0,     0.000,   -18.700,  17,1.0000
   332,'1 ',     8.796,     2.137,     5.500,    -3.700,1.04763,     0,    12.500, 0.00000E+0, 1.30000E-1, 0.00000E+0, 0.00000E+0,1.00000,1,  100.0,    11.300,     0.000,   4,1.0000
   342,'4A',   373.555,    98.046,   181.000,  -123.000,1.03000,     0,   483.000, 2.00000E-3, 2.50000E-1, 0.00000E+0, 0.00000E+0,1.00000,1,  100.0,   430.000,   169.000,  17,1.0000
   345,'5A',   333.153,    92.171,   181.000,  -123.000,1.03000,     0,   483.700, 2.00000E-3, 2.50000E-1, 0.00000E+0, 0.00000E+0,1.00000,1,  100.0,   435.400,   150.000,  17,1.0000
   350,'6A',   257.690,    78.865,   210.000,   -50.000,1.03000,     0,   472.800, 2.00000E-3, 2.47000E-1, 0.00000E+0, 0.00000E+0,1.00000,1,  100.0,   425.000,   150.000,  17,1.0000
   377,'1 ',     1.393,     0.224,     2.400,    -1.600,1.03085,     0,     5.600, 2.00000E-3, 2.00000E-1, 0.00000E+0, 0.00000E+0,1.00000,1,  100.0,     5.000,     0.000,  17,1.0000
   381,'1 ',     1.074,    -1.200,     1.700,    -1.200,1.04255,     0,     4.000, 2.00000E-3, 2.00000E-1, 0.00000E+0, 0.00000E+0,1.00000,1,  100.0,     3.600,     0.000,  17,1.0000
   383,'1 ',   158.000,   -37.000,    48.000,   -37.000,1.01800,     0,   165.000, 7.40000E-3, 1.41000E-1, 0.00000E+0, 0.00000E+0,1.00000,1,  100.0,   158.000,    55.000,  17,1.0000
   383,'2 ',    65.192,   -18.502,    53.000,   -47.000,1.01800,     0,   171.000, 7.40000E-3, 1.41000E-1, 0.00000E+0, 0.00000E+0,1.00000,1,  100.0,   163.000,    57.000,  17,1.0000
   383,'3 ',   125.000,   -10.287,    35.000,   -43.000,1.01800,     0,   157.000, 7.50000E-3, 1.31000E-1, 0.00000E+0, 0.00000E+0,1.00000,0,  100.0,   133.000,    50.000,  17,1.0000
   403,'3 ',   476.500,   224.940,   310.400,   -99.900,1.06000,   610,   586.000, 4.00000E-3, 2.77000E-1, 0.00000E+0, 0.00000E+0,1.00000,1,  100.0,   498.000,   142.000,  17,1.0000
   405,'1 ',    82.500,   -24.700,    25.800,   -24.700,1.05000,     0,    93.900, 3.30000E-3, 1.60000E-1, 0.00000E+0, 0.00000E+0,1.00000,1,  100.0,    82.500,     8.000, 251,1.0000
   405,'2 ',    69.200,   -35.000,    40.000,   -35.000,1.05000,     0,    93.900, 3.30000E-3, 1.60000E-1, 0.00000E+0, 0.00000E+0,1.00000,1,  100.0,    85.300,    10.000, 251,1.0000
   407,'1 ',     0.589,     3.310,     6.000,    -4.100,1.02756,     0,    13.800, 0.00000E+0, 2.30000E-1, 0.00000E+0, 0.00000E+0,1.00000,1,  100.0,    12.400,     0.000,  17,1.0000
   408,'1 ',    24.054,    10.017,    15.400,   -10.500,1.02671,     0,    35.300, 0.00000E+0, 1.80000E-1, 0.00000E+0, 0.00000E+0,1.00000,1,  100.0,    31.800,     0.000,  17,1.0000
   414,'1 ',     0.824,     1.176,    10.000,    -6.800,1.02000,     0,    22.800, 0.00000E+0, 2.40000E-1, 0.00000E+0, 0.00000E+0,1.00000,1,  100.0,    20.600,     0.000,  17,1.0000
   422,'1A',   399.474,    74.161,   208.000,  -110.000,1.03000,     0,   477.000, 5.07000E-3, 3.00000E-1, 0.00000E+0, 0.00000E+0,1.00000,1,  100.0,   415.000,   164.000,  17,1.0000
   424,'2A',   388.157,    72.462,   208.000,  -110.000,1.03000,     0,   477.000, 5.07000E-3, 3.00000E-1, 0.00000E+0, 0.00000E+0,1.00000,1,  100.0,   415.000,   199.000,  17,1.0000
   450,'1 ',     0.000,     0.000,     2.400,    -1.600,1.04788,     0,     7.000, 0.00000E+0, 2.00000E-1, 0.00000E+0, 0.00000E+0,1.00000,0,  100.0,     6.300,     0.000,  17,1.0000
   451,'1 ',   171.800,     0.000,     0.000,     0.000,1.00000,     0,   310.000, 0.00000E+0, 1.00000E+0, 0.00000E+0, 0.00000E+0,1.00000,1,  100.0,   320.000,  -320.000, 381,1.0000
   479,'1 ',     3.500,     8.700,     8.700,    -5.900,1.04761,     0,    20.000, 2.00000E-3, 2.50000E-1, 0.00000E+0, 0.00000E+0,1.00000,0,  100.0,    18.000,    -1.000,  17,1.0000
   490,'3 ',   141.200,    10.758,   255.400,  -173.300,1.04000,     0,   586.000, 1.89000E-3, 2.77000E-1, 0.00000E+0, 0.00000E+0,1.00000,1,  100.0,   527.400,   142.000,   5,1.0000
   491,'1 ',   422.000,    92.321,   138.400,   -34.400,1.06000,     0,   482.400, 1.89000E-3, 2.50000E-1, 0.00000E+0, 0.00000E+0,1.00000,1,  100.0,   422.000,   123.600,   5,1.0000
   492,'2A',   422.000,    89.979,   208.000,  -112.000,1.06000,     0,   482.400, 1.85000E-3, 2.50000E-1, 0.00000E+0, 0.00000E+0,1.00000,1,  100.0,   422.000,   200.000,   5,1.0000
   680,'1 ',    56.300,    10.628,    27.200,   -18.500,1.02000,     0,    62.500, 0.00000E+0, 2.10000E-1, 0.00000E+0, 0.00000E+0,1.00000,1,  100.0,    56.300,     0.000,  17,1.0000
   680,'10',    31.900,     6.022,    15.400,   -10.500,1.02000,     0,    35.400, 0.00000E+0, 2.20000E-1, 0.00000E+0, 0.00000E+0,1.00000,1,  100.0,    31.900,    12.000,  17,1.0000
   680,'11',    31.900,     6.022,    15.400,   -10.500,1.02000,     0,    35.400, 0.00000E+0, 2.20000E-1, 0.00000E+0, 0.00000E+0,1.00000,1,  100.0,    31.900,    12.000,  17,1.0000
   680,'12',    38.300,     7.230,    18.600,   -12.600,1.02000,     0,    42.600, 0.00000E+0, 1.60000E-1, 0.00000E+0, 0.00000E+0,1.00000,1,  100.0,    38.300,     4.000,  17,1.0000
   680,'14',    17.000,     3.209,    27.700,   -12.600,1.02000,     0,    67.500, 1.40000E-3, 1.90000E-1, 0.00000E+0, 0.00000E+0,1.00000,1,  100.0,    45.000,    17.000,  17,1.0000
   680,'15',    35.000,    -0.864,    22.000,   -14.100,1.02000,     0,    71.200, 5.30000E-3, 1.44000E-1, 0.00000E+0, 0.00000E+0,1.00000,0,  100.0,    43.000,    17.000,  17,1.0000
   680,'3 ',    30.000,    -0.741,    18.500,   -12.600,1.02000,     0,    42.600, 0.00000E+0, 1.60000E-1, 0.00000E+0, 0.00000E+0,1.00000,0,  100.0,    38.300,     4.000,  17,1.0000
   680,'9 ',     0.000,     0.000,    19.600,   -13.300,1.02000,     0,    44.900, 0.00000E+0, 2.60000E-1, 0.00000E+0, 0.00000E+0,1.00000,0,  100.0,    40.400,     0.000,  17,1.0000
  1031,'1 ',     0.000,     0.000,    13.900,    -9.500,1.02000,     0,    32.000, 3.50000E-3, 7.00000E-2, 0.00000E+0, 0.00000E+0,1.00000,0,  100.0,    28.800,     4.000,   1,1.0000
  1032,'2 ',    12.309,    15.092,    25.000,   -18.000,1.02000,     0,    49.000, 7.20000E-3, 1.45000E-1, 0.00000E+0, 0.00000E+0,1.00000,1,  100.0,    44.100,     4.000,   1,1.0000
  1033,'3 ',     0.000,     0.000,     9.500,    -6.400,1.02000,     0,    21.700, 4.50000E-3, 9.00000E-2, 0.00000E+0, 0.00000E+0,1.00000,0,  100.0,    19.500,     3.000,   1,1.0000
  1035,'4 ',    32.326,   -17.300,    25.500,   -17.300,1.02000,     0,    58.600, 1.40000E-3, 1.62000E-1, 0.00000E+0, 0.00000E+0,1.00000,1,  100.0,    52.700,     9.000,  21,1.0000
  1037,'5 ',    34.453,    -7.993,    25.500,   -17.300,1.02000,     0,    60.000, 1.40000E-3, 1.98000E-1, 0.00000E+0, 0.00000E+0,1.00000,1,  100.0,    52.700,     2.000,  21,1.0000
  1087,'2 ',     5.000,    -9.200,    13.400,    -9.200,1.00000,     0,    29.500, 6.00000E-3, 1.40000E-1, 0.00000E+0, 0.00000E+0,1.00000,0,  100.0,    25.100,     5.000,  33,1.0000
  1089,'1A',    30.126,   -13.900,    20.500,   -13.900,1.00000,     0,    47.100, 9.30000E-3, 1.88000E-1, 0.00000E+0, 0.00000E+0,1.00000,1,  100.0,    40.000,     2.270,  33,1.0000
  1101,'2 ',    15.983,    -9.500,    13.900,    -9.500,1.05000,     0,    32.000, 3.10000E-3, 1.98000E-1, 0.00000E+0, 0.00000E+0,1.00000,1,  100.0,    28.800,     0.000,  30,1.0000
  1146,'1A',    14.507,   -16.200,    30.000,   -16.200,1.01000,     0,    57.900, 0.00000E+0, 1.55000E-1, 0.00000E+0, 0.00000E+0,1.00000,1,  100.0,    49.200,    10.000,  39,1.0000
  1148,'1 ',   142.952,   -19.438,    72.600,   -49.300,1.02600,     0,   167.000, 3.00000E-3, 1.85000E-1, 0.00000E+0, 0.00000E+0,1.00000,1,  100.0,   151.100,     0.000,   1,1.0000
  1167,'1 ',     0.000,     0.000,     5.400,    -3.700,1.03000,     0,    12.500, 4.50000E-3, 1.68000E-1, 0.00000E+0, 0.00000E+0,1.00000,0,  100.0,    11.300,     0.750,   1,1.0000
  1168,'2 ',     0.000,     0.000,     4.100,    -3.700,1.00000,     0,     9.400, 5.00000E-3, 1.68000E-1, 0.00000E+0, 0.00000E+0,1.00000,0,  100.0,     8.400,     0.750,   1,1.0000
  1171,'1 ',     9.000,   -14.373,    25.500,   -17.300,1.02000,     0,    60.000, 1.40000E-3, 1.98000E-1, 0.00000E+0, 0.00000E+0,1.00000,1,  100.0,    52.700,     9.000,   1,1.0000
  1173,'2 ',     3.048,   -17.300,    25.500,   -17.300,1.00000,     0,    72.000, 5.00000E-4, 1.60000E-1, 0.00000E+0, 0.00000E+0,1.00000,1,  100.0,    52.700,     2.000,   1,1.0000
  1205,'1 ',   100.000,    41.097,    44.800,   -30.400,1.10000,     0,   102.800, 4.00000E-3, 2.30000E-1, 0.00000E+0, 0.00000E+0,1.00000,1,  100.0,   100.000,    16.450,   9,1.0000
  1205,'11',    22.000,     9.041,    27.000,   -13.000,1.10000,     0,    33.800, 4.50000E-3, 1.47000E-1, 0.00000E+0, 0.00000E+0,1.00000,1,  100.0,    22.000,     2.000,   9,1.0000
...